LTspice 26.0.2 for Windows
Circuit: C:\Users\tarik\Documents\LTspice\Draft1.net
Start Time: Fri Jun 26 22:55:17 2026
solver = Normal
Maximum thread count: 16
tnom = 27
temp = 27
method = trap
Direct Newton iteration succeeded in finding operating point.
Total elapsed time: 0.091 seconds.

Files loaded:
C:\Users\tarik\Documents\LTspice\Draft1.net

